# generated using pymatgen
data_Li7Ti5O12
_symmetry_space_group_name_H-M   C2/m
_cell_length_a   5.07985484
_cell_length_b   8.80097583
_cell_length_c   9.98184154
_cell_angle_alpha   90.00000000
_cell_angle_beta   99.71316284
_cell_angle_gamma   90.00000000
_symmetry_Int_Tables_number   12
_chemical_formula_structural   Li7Ti5O12
_chemical_formula_sum   'Li14 Ti10 O24'
_cell_volume   439.86764735
_cell_formula_units_Z   2
loop_
 _symmetry_equiv_pos_site_id
 _symmetry_equiv_pos_as_xyz
  1  'x, y, z'
  2  '-x, -y, -z'
  3  '-x, y, -z'
  4  'x, -y, z'
  5  'x+1/2, y+1/2, z'
  6  '-x+1/2, -y+1/2, -z'
  7  '-x+1/2, y+1/2, -z'
  8  'x+1/2, -y+1/2, z'
loop_
 _atom_site_type_symbol
 _atom_site_label
 _atom_site_symmetry_multiplicity
 _atom_site_fract_x
 _atom_site_fract_y
 _atom_site_fract_z
 _atom_site_occupancy
  Li1+  Li1  8  0.244351  0.166078  0.244330  1
  Li1+  Li2  4  0.245769  0.000000  0.756887  1
  Li1+  Li3  2  0.000000  0.000000  0.000000  1
  Ti3+  Ti4  4  0.000000  0.171129  0.500000  1
  Ti4+  Ti5  4  0.000000  0.333273  0.000000  1
  Ti3+  Ti6  2  0.000000  0.500000  0.500000  1
  O2-  O7  8  0.126830  0.328740  0.381261  1
  O2-  O8  8  0.139705  0.177434  0.886927  1
  O2-  O9  4  0.108063  0.500000  0.887017  1
  O2-  O10  4  0.126516  0.000000  0.378561  1
